Input Parameters:
   integrator                     = md
   tinit                          = 0
   dt                             = 0.0005
   nsteps                         = 1000000
   init-step                      = 0
   simulation-part                = 1
   comm-mode                      = Linear
   nstcomm                        = 5000
   bd-fric                        = 0
   ld-seed                        = 3997196371
   emtol                          = 10
   emstep                         = 0.01
   niter                          = 20
   fcstep                         = 0
   nstcgsteep                     = 1000
   nbfgscorr                      = 10
   rtpi                           = 0.05
   nstxout                        = 0
   nstvout                        = 0
   nstfout                        = 0
   nstlog                         = 5000
   nstcalcenergy                  = 100
   nstenergy                      = 5000
   nstxout-compressed             = 5000
   compressed-x-precision         = 1000
   cutoff-scheme                  = Group
   nstlist                        = 40
   ns-type                        = Grid
   pbc                            = xyz
   periodic-molecules             = FALSE
   verlet-buffer-tolerance        = 0.005
   rlist                          = 1.3
   rlistlong                      = 1.3
   nstcalclr                      = 0
   coulombtype                    = User
   coulomb-modifier               = None
   rcoulomb-switch                = 0
   rcoulomb                       = 1.3
   epsilon-r                      = 1.6
   epsilon-rf                     = inf
   vdw-type                       = Cut-off
   vdw-modifier                   = None
   rvdw-switch                    = 0
   rvdw                           = 1.3
   DispCorr                       = No
   table-extension                = 1
   fourierspacing                 = 0.12
   fourier-nx                     = 0
   fourier-ny                     = 0
   fourier-nz                     = 0
   pme-order                      = 4
   ewald-rtol                     = 1e-05
   ewald-rtol-lj                  = 0.001
   lj-pme-comb-rule               = Geometric
   ewald-geometry                 = 0
   epsilon-surface                = 0
   implicit-solvent               = No
   gb-algorithm                   = Still
   nstgbradii                     = 1
   rgbradii                       = 1
   gb-epsilon-solvent             = 80
   gb-saltconc                    = 0
   gb-obc-alpha                   = 1
   gb-obc-beta                    = 0.8
   gb-obc-gamma                   = 4.85
   gb-dielectric-offset           = 0.009
   sa-algorithm                   = Ace-approximation
   sa-surface-tension             = 2.05016
   tcoupl                         = V-rescale
   nsttcouple                     = 40
   nh-chain-length                = 0
   print-nose-hoover-chain-variables = FALSE
   pcoupl                         = No
   pcoupltype                     = Isotropic
   nstpcouple                     = -1
   tau-p                          = 1
   compressibility (3x3):
      compressibility[    0]={ 0.00000e+00,  0.00000e+00,  0.00000e+00}
      compressibility[    1]={ 0.00000e+00,  0.00000e+00,  0.00000e+00}
      compressibility[    2]={ 0.00000e+00,  0.00000e+00,  0.00000e+00}
   ref-p (3x3):
      ref-p[    0]={ 0.00000e+00,  0.00000e+00,  0.00000e+00}
      ref-p[    1]={ 0.00000e+00,  0.00000e+00,  0.00000e+00}
      ref-p[    2]={ 0.00000e+00,  0.00000e+00,  0.00000e+00}
   refcoord-scaling               = No
   posres-com (3):
      posres-com[0]= 0.00000e+00
      posres-com[1]= 0.00000e+00
      posres-com[2]= 0.00000e+00
   posres-comB (3):
      posres-comB[0]= 0.00000e+00
      posres-comB[1]= 0.00000e+00
      posres-comB[2]= 0.00000e+00
   QMMM                           = FALSE
   QMconstraints                  = 0
   QMMMscheme                     = 0
   MMChargeScaleFactor            = 1
qm-opts:
   ngQM                           = 0
   constraint-algorithm           = Lincs
   continuation                   = FALSE
   Shake-SOR                      = FALSE
   shake-tol                      = 0.0001
   lincs-order                    = 4
   lincs-iter                     = 1
   lincs-warnangle                = 30
   nwall                          = 0
   wall-type                      = 9-3
   wall-r-linpot                  = -1
   wall-atomtype[0]               = -1
   wall-atomtype[1]               = -1
   wall-density[0]                = 0
   wall-density[1]                = 0
   wall-ewald-zfac                = 3
   pull                           = FALSE
   rotation                       = FALSE
   interactiveMD                  = FALSE
   disre                          = No
   disre-weighting                = Conservative
   disre-mixed                    = FALSE
   dr-fc                          = 1000
   dr-tau                         = 0
   nstdisreout                    = 100
   orire-fc                       = 0
   orire-tau                      = 0
   nstorireout                    = 100
   free-energy                    = no
   cos-acceleration               = 0
   deform (3x3):
      deform[    0]={ 0.00000e+00,  0.00000e+00,  0.00000e+00}
      deform[    1]={ 0.00000e+00,  0.00000e+00,  0.00000e+00}
      deform[    2]={ 0.00000e+00,  0.00000e+00,  0.00000e+00}
   simulated-tempering            = FALSE
   E-x:
      n = 0
   E-xt:
      n = 0
   E-y:
      n = 0
   E-yt:
      n = 0
   E-z:
      n = 0
   E-zt:
      n = 0
   swapcoords                     = no
   adress                         = FALSE
   userint1                       = 0
   userint2                       = 0
   userint3                       = 0
   userint4                       = 0
   userreal1                      = 0
   userreal2                      = 0
   userreal3                      = 0
   userreal4                      = 0
grpopts:
   nrdf:     6045.75     2015.25           0           0
   ref-t:         600           1           0           0
   tau-t:         0.5           0           0           0
annealing:      Single          No          No          No
annealing-npoints:           3           0           0           0
annealing-time [0]:	         0.0       100.0       500.0
annealing-temp [0]:	       600.0       600.0         1.0
   acc:	           0           0           0
   nfreeze:           N           Y           N           N           Y           N           N           N           N
   energygrp-flags[  0]: 0 0 2 2
   energygrp-flags[  1]: 0 0 2 2
   energygrp-flags[  2]: 2 2 3 3
   energygrp-flags[  3]: 2 2 3 3

Initializing Domain Decomposition on 32 ranks
Dynamic load balancing: auto
Will sort the charge groups at every domain (re)decomposition
Initial maximum inter charge-group distances:
    two-body bonded interactions: 0.442 nm, LJ-14, atoms 1921 1928
  multi-body bonded interactions: 0.442 nm, Ryckaert-Bell., atoms 1921 1928
Minimum cell size due to bonded interactions: 0.487 nm
Scaling the initial minimum size with 1/0.8 (option -dds) = 1.25
Optimizing the DD grid for 32 cells with a minimum initial size of 0.608 nm
The maximum allowed number of cells is: X 4 Y 4 Z 4
Domain decomposition grid 4 x 4 x 2, separate PME ranks 0
Domain decomposition rank 0, coordinates 0 0 0

Using 32 MPI threads

NOTE: This file uses the deprecated 'group' cutoff_scheme. This will be
removed in a future release when 'verlet' supports all interaction forms.

Table routines are used for coulomb: TRUE
Table routines are used for vdw:     FALSE
Cut-off's:   NS: 1.3   Coulomb: 1.3   LJ: 1.3
System total charge: 0.038
Read user tables from table.xvg with 2251 data points.
Tabscale = 500 points/nm
Generated table with 1150 data points for LJ6.
Tabscale = 500 points/nm
Generated table with 1150 data points for LJ12.
Tabscale = 500 points/nm
Read user tables from table_Ch_PDA.xvg with 2251 data points.
Tabscale = 500 points/nm

WARNING: For the 648 non-zero entries for table 0 in table_Ch_PDA.xvg the forces deviate on average 62% from minus the numerical derivative of the potential

Generated table with 1150 data points for LJ6.
Tabscale = 500 points/nm
Generated table with 1150 data points for LJ12.
Tabscale = 500 points/nm
Read user tables from table_Ch_NDA.xvg with 2251 data points.
Tabscale = 500 points/nm

WARNING: For the 648 non-zero entries for table 0 in table_Ch_NDA.xvg the forces deviate on average 62% from minus the numerical derivative of the potential

Generated table with 1150 data points for LJ6.
Tabscale = 500 points/nm
Generated table with 1150 data points for LJ12.
Tabscale = 500 points/nm
Read user tables from table_Ac_PDA.xvg with 2251 data points.
Tabscale = 500 points/nm

WARNING: For the 648 non-zero entries for table 0 in table_Ac_PDA.xvg the forces deviate on average 62% from minus the numerical derivative of the potential

Generated table with 1150 data points for LJ6.
Tabscale = 500 points/nm
Generated table with 1150 data points for LJ12.
Tabscale = 500 points/nm
Read user tables from table_Ac_NDA.xvg with 2251 data points.
Tabscale = 500 points/nm

WARNING: For the 648 non-zero entries for table 0 in table_Ac_NDA.xvg the forces deviate on average 62% from minus the numerical derivative of the potential

Generated table with 1150 data points for LJ6.
Tabscale = 500 points/nm
Generated table with 1150 data points for LJ12.
Tabscale = 500 points/nm
Read user tables from Cat.xvg with 2251 data points.
Tabscale = 500 points/nm
Generated table with 2251 data points for 1-4 LJ6.
Tabscale = 500 points/nm
Generated table with 2251 data points for 1-4 LJ12.
Tabscale = 500 points/nm
Potential shift: LJ r^-12: 0.000e+00 r^-6: 0.000e+00
Removing pbc first time
Pinning threads with an auto-selected logical core stride of 1

Linking all bonded interactions to atoms

The initial number of communication pulses is: X 2 Y 2 Z 1
The initial domain decomposition cell size is: X 0.74 nm Y 0.74 nm Z 1.48 nm

The maximum allowed distance for charge groups involved in interactions is:
                 non-bonded interactions           1.300 nm
            two-body bonded interactions  (-rdd)   1.300 nm
          multi-body bonded interactions  (-rdd)   0.741 nm

When dynamic load balancing gets turned on, these settings will change to:
The maximum number of communication pulses is: X 3 Y 3 Z 1
The minimum size for domain decomposition cells is 0.592 nm
The requested allowed shrink of DD cells (option -dds) is: 0.80
The allowed shrink of domain decomposition cells is: X 0.80 Y 0.80 Z 0.88
The maximum allowed distance for charge groups involved in interactions is:
                 non-bonded interactions           1.300 nm
            two-body bonded interactions  (-rdd)   1.300 nm
          multi-body bonded interactions  (-rdd)   0.592 nm

Making 3D domain decomposition grid 4 x 4 x 2, home cell index 0 0 0

Center of mass motion removal mode is Linear
We have the following groups for center of mass motion removal:
  0:  rest

There are: 2688 Atoms
There are: 192 VSites
Atom distribution over 32 domains: av 90 stddev 11 min 72 max 119
Grid: 6 x 6 x 4 cells
Initial temperature: 10.0782 K

Started mdrun on rank 0 Mon Jul  9 20:09:09 2018
           Step           Time         Lambda
              0        0.00000        0.00000

   Energies (kJ/mol)
           Bond          Angle    Proper Dih. Ryckaert-Bell.          LJ-14
    2.13041e+02    4.66066e+02    1.37244e+01   -8.96587e+03    1.15452e+03
     Coulomb-14        LJ (SR)   Coulomb (SR) Position Rest.      Potential
   -1.12035e+03   -7.07901e+03   -4.17904e+04    0.00000e+00   -5.71083e+04
    Kinetic En.   Total Energy  Conserved En.    Temperature Pressure (bar)
    3.38228e+02   -5.67701e+04   -5.67701e+04    1.00929e+01    9.27596e+02

	<====  A V E R A G E S  ====>

	Statistics over 1000001 steps using 10001 frames

Current ref_t for group Ch:      1.0
   Energies (kJ/mol)
           Bond          Angle    Proper Dih. Ryckaert-Bell.          LJ-14
    4.20930e+03    3.44819e+03    5.75358e+00   -8.02764e+03    1.50256e+03
     Coulomb-14        LJ (SR)   Coulomb (SR) Position Rest.      Potential
   -1.11809e+03   -6.56778e+03   -4.16626e+04    0.00000e+00   -4.82103e+04
    Kinetic En.   Total Energy  Conserved En.    Temperature Pressure (bar)
    9.55200e+03   -3.86583e+04    7.03238e+05    2.85037e+02    1.39027e+03

   Total Virial (kJ/mol)
   -1.61422e+03   -1.73202e+01   -1.43786e+02
   -1.73202e+01   -4.66934e+03   -3.95466e+02
   -1.43786e+02   -3.95466e+02    1.25680e+04

   Pressure (bar)
    6.09487e+03   -1.81329e+01    2.18847e+02
   -1.81330e+01    1.02523e+04    4.92395e+02
    2.18847e+02    4.92395e+02   -1.21764e+04

  Epot (kJ/mol)        Coul-SR          LJ-SR        Coul-14          LJ-14
          Ch-Ch    1.01300e+05   -2.13472e+03    3.09921e+02    1.46346e+03
          Ch-Ac   -2.07079e+05   -3.83170e+03    0.00000e+00    0.00000e+00
         Ch-PDA    2.20194e+05    0.00000e+00    0.00000e+00    0.00000e+00
         Ch-NDA   -2.32104e+05    0.00000e+00    0.00000e+00    0.00000e+00
          Ac-Ac    9.62242e+04   -6.01362e+02   -1.42801e+03    3.91020e+01
         Ac-PDA   -2.32732e+05    0.00000e+00    0.00000e+00    0.00000e+00
         Ac-NDA    2.12534e+05    0.00000e+00    0.00000e+00    0.00000e+00
        PDA-PDA    0.00000e+00    0.00000e+00    0.00000e+00    0.00000e+00
        PDA-NDA    0.00000e+00    0.00000e+00    0.00000e+00    0.00000e+00
        NDA-NDA    0.00000e+00    0.00000e+00    0.00000e+00    0.00000e+00

           T-Ch           T-Ac          T-PDA          T-NDA
    3.78626e+02    4.27151e+00    0.00000e+00    0.00000e+00
